<?xml version="1.0" encoding="UTF-8"?>

<!-- generated on 2022-02-20 23:15:55 by Eclipse SUMO netedit Version 1.10.0
<configuration xmlns:xsi="http://www.w3.org/2001/XMLSchema-instance" xsi:noNamespaceSchemaLocation="http://sumo.dlr.de/xsd/netconvertConfiguration.xsd">

    <input>
        <sumo-net-file value="/Users/wangzheng/Desktop/01/sumo/ITSC_experiment1/sumo_scenario6/scenario.net.xml"/>
    </input>

    <output>
        <output-file value="/Users/wangzheng/Desktop/01/sumo/ITSC_experiment1/sumo_scenario6/scenario.net.xml"/>
    </output>

    <processing>
        <geometry.min-radius.fix.railways value="false"/>
        <geometry.max-grade.fix value="false"/>
        <offset.disable-normalization value="true"/>
        <lefthand value="false"/>
    </processing>

    <junctions>
        <no-turnarounds value="true"/>
        <junctions.corner-detail value="5"/>
        <junctions.limit-turn-speed value="5.5"/>
        <rectangular-lane-cut value="false"/>
    </junctions>

    <pedestrian>
        <walkingareas value="false"/>
    </pedestrian>

    <report>
        <aggregate-warnings value="5"/>
    </report>

</configuration>
-->

<net version="1.9" junctionCornerDetail="5" limitTurnSpeed="5.50" xmlns:xsi="http://www.w3.org/2001/XMLSchema-instance" xsi:noNamespaceSchemaLocation="http://sumo.dlr.de/xsd/net_file.xsd">

    <location netOffset="0.00,0.00" convBoundary="0.00,50.00,1060.32,450.27" origBoundary="0.00,0.00,700.00,500.00" projParameter="!"/>

    <edge id=":A0_0" function="internal">
        <lane id=":A0_0_0" index="0" speed="7.66" length="12.90" shape="48.40,56.40 48.90,52.90 50.40,50.40 52.90,48.90 56.40,48.40"/>
    </edge>
    <edge id=":A0_1" function="internal">
        <lane id=":A0_1_0" index="0" speed="3.65" length="4.67" shape="48.40,56.40 49.20,55.20 50.00,54.80 50.80,55.20 51.60,56.40"/>
    </edge>
    <edge id=":A0_2" function="internal">
        <lane id=":A0_2_0" index="0" speed="3.90" length="2.58" shape="56.40,54.80 55.70,54.90 55.20,55.20 54.90,55.70 54.80,56.40"/>
    </edge>
    <edge id=":A0_3" function="internal">
        <lane id=":A0_3_0" index="0" speed="3.65" length="2.08" shape="56.40,51.60 55.20,50.80 54.91,50.23"/>
    </edge>
    <edge id=":A0_4" function="internal">
        <lane id=":A0_4_0" index="0" speed="3.65" length="2.59" shape="54.91,50.23 54.80,50.00 55.20,49.20 56.40,48.40"/>
    </edge>
    <edge id=":A1_0" function="internal">
        <lane id=":A1_0_0" index="0" speed="13.89" length="20.80" shape="45.20,260.40 45.20,239.60"/>
        <lane id=":A1_0_1" index="1" speed="13.89" length="20.80" shape="48.40,260.40 48.40,239.60"/>
    </edge>
    <edge id=":A1_2" function="internal">
        <lane id=":A1_2_0" index="0" speed="9.26" length="6.96" shape="48.40,260.40 49.15,255.15 50.00,253.73"/>
    </edge>
    <edge id=":A1_3" function="internal">
        <lane id=":A1_3_0" index="0" speed="3.65" length="2.34" shape="48.40,260.40 49.20,259.20 50.00,258.80"/>
    </edge>
    <edge id=":A1_11" function="internal">
        <lane id=":A1_11_0" index="0" speed="9.26" length="12.40" shape="50.00,253.73 51.40,251.40 55.15,249.15 60.40,248.40"/>
    </edge>
    <edge id=":A1_12" function="internal">
        <lane id=":A1_12_0" index="0" speed="3.65" length="2.34" shape="50.00,258.80 50.80,259.20 51.60,260.40"/>
    </edge>
    <edge id=":A1_4" function="internal">
        <lane id=":A1_4_0" index="0" speed="6.51" length="9.03" shape="60.40,254.80 57.95,255.15 56.20,256.20 55.15,257.95 54.80,260.40"/>
    </edge>
    <edge id=":A1_5" function="internal">
        <lane id=":A1_5_0" index="0" speed="9.26" length="19.35" shape="60.40,251.60 55.15,250.85 51.40,248.60 49.15,244.85 48.40,239.60"/>
    </edge>
    <edge id=":A1_6" function="internal">
        <lane id=":A1_6_0" index="0" speed="3.65" length="2.34" shape="60.40,251.60 59.20,250.80 58.80,250.00"/>
    </edge>
    <edge id=":A1_13" function="internal">
        <lane id=":A1_13_0" index="0" speed="3.65" length="2.34" shape="58.80,250.00 59.20,249.20 60.40,248.40"/>
    </edge>
    <edge id=":A1_7" function="internal">
        <lane id=":A1_7_0" index="0" speed="6.51" length="9.03" shape="54.80,239.60 55.15,242.05 56.20,243.80 57.95,244.85 60.40,245.20"/>
    </edge>
    <edge id=":A1_8" function="internal">
        <lane id=":A1_8_0" index="0" speed="13.89" length="20.80" shape="54.80,239.60 54.80,260.40"/>
        <lane id=":A1_8_1" index="1" speed="13.89" length="20.80" shape="51.60,239.60 51.60,260.40"/>
    </edge>
    <edge id=":A1_10" function="internal">
        <lane id=":A1_10_0" index="0" speed="3.65" length="2.34" shape="51.60,239.60 50.80,240.80 50.00,241.20"/>
    </edge>
    <edge id=":A1_14" function="internal">
        <lane id=":A1_14_0" index="0" speed="3.65" length="2.34" shape="50.00,241.20 49.20,240.80 48.40,239.60"/>
    </edge>
    <edge id=":A2_0" function="internal">
        <lane id=":A2_0_0" index="0" speed="13.89" length="20.80" shape="60.40,454.80 39.60,454.80"/>
        <lane id=":A2_0_1" index="1" speed="13.89" length="20.80" shape="60.40,451.60 39.60,451.60"/>
    </edge>
    <edge id=":A2_2" function="internal">
        <lane id=":A2_2_0" index="0" speed="9.84" length="8.68" shape="60.40,451.60 53.75,450.85 51.96,450.00"/>
        <lane id=":A2_2_1" index="1" speed="9.26" length="6.96" shape="60.40,451.60 55.15,450.85 53.73,450.00"/>
    </edge>
    <edge id=":A2_4" function="internal">
        <lane id=":A2_4_0" index="0" speed="3.65" length="2.34" shape="60.40,451.60 59.20,450.80 58.80,450.00"/>
    </edge>
    <edge id=":A2_14" function="internal">
        <lane id=":A2_14_0" index="0" speed="9.84" length="13.32" shape="51.96,450.00 49.00,448.60 46.15,444.85 45.20,439.60"/>
    </edge>
    <edge id=":A2_15" function="internal">
        <lane id=":A2_15_0" index="0" speed="9.26" length="12.40" shape="53.73,450.00 51.40,448.60 49.15,444.85 48.40,439.60"/>
    </edge>
    <edge id=":A2_16" function="internal">
        <lane id=":A2_16_0" index="0" speed="3.65" length="2.34" shape="58.80,450.00 59.20,449.20 60.40,448.40"/>
    </edge>
    <edge id=":A2_5" function="internal">
        <lane id=":A2_5_0" index="0" speed="6.51" length="9.03" shape="54.80,439.60 55.15,442.05 56.20,443.80 57.95,444.85 60.40,445.20"/>
        <lane id=":A2_5_1" index="1" speed="7.33" length="11.73" shape="54.80,439.60 55.15,443.45 56.20,446.20 57.95,447.85 60.40,448.40"/>
    </edge>
    <edge id=":A2_7" function="internal">
        <lane id=":A2_7_0" index="0" speed="9.84" length="21.99" shape="51.60,439.60 50.85,446.25 48.60,451.00 44.85,453.85 39.60,454.80"/>
        <lane id=":A2_7_1" index="1" speed="9.26" length="19.35" shape="51.60,439.60 50.85,444.85 48.60,448.60 44.85,450.85 39.60,451.60"/>
    </edge>
    <edge id=":A2_9" function="internal">
        <lane id=":A2_9_0" index="0" speed="3.65" length="2.34" shape="51.60,439.60 50.80,440.80 50.00,441.20"/>
    </edge>
    <edge id=":A2_17" function="internal">
        <lane id=":A2_17_0" index="0" speed="3.65" length="2.34" shape="50.00,441.20 49.20,440.80 48.40,439.60"/>
    </edge>
    <edge id=":A2_10" function="internal">
        <lane id=":A2_10_0" index="0" speed="6.51" length="9.03" shape="39.60,445.20 42.05,444.85 43.80,443.80 44.85,442.05 45.20,439.60"/>
    </edge>
    <edge id=":A2_11" function="internal">
        <lane id=":A2_11_0" index="0" speed="13.89" length="20.80" shape="39.60,445.20 60.40,445.20"/>
        <lane id=":A2_11_1" index="1" speed="13.89" length="20.80" shape="39.60,448.40 60.40,448.40"/>
    </edge>
    <edge id=":A2_13" function="internal">
        <lane id=":A2_13_0" index="0" speed="3.65" length="2.34" shape="39.60,448.40 40.80,449.20 41.20,450.00"/>
    </edge>
    <edge id=":A2_18" function="internal">
        <lane id=":A2_18_0" index="0" speed="3.65" length="2.34" shape="41.20,450.00 40.80,450.80 39.60,451.60"/>
    </edge>
    <edge id=":B0_0" function="internal">
        <lane id=":B0_0_0" index="0" speed="6.51" length="9.03" shape="345.20,60.40 344.85,57.95 343.80,56.20 342.05,55.15 339.60,54.80"/>
    </edge>
    <edge id=":B0_1" function="internal">
        <lane id=":B0_1_0" index="0" speed="9.26" length="19.35" shape="348.40,60.40 349.15,55.15 351.40,51.40 355.15,49.15 360.40,48.40"/>
    </edge>
    <edge id=":B0_2" function="internal">
        <lane id=":B0_2_0" index="0" speed="3.65" length="2.34" shape="348.40,60.40 349.20,59.20 350.00,58.80"/>
    </edge>
    <edge id=":B0_11" function="internal">
        <lane id=":B0_11_0" index="0" speed="3.65" length="2.34" shape="350.00,58.80 350.80,59.20 351.60,60.40"/>
    </edge>
    <edge id=":B0_3" function="internal">
        <lane id=":B0_3_0" index="0" speed="6.51" length="9.03" shape="360.40,54.80 357.95,55.15 356.20,56.20 355.15,57.95 354.80,60.40"/>
    </edge>
    <edge id=":B0_4" function="internal">
        <lane id=":B0_4_0" index="0" speed="13.89" length="20.80" shape="360.40,54.80 339.60,54.80"/>
        <lane id=":B0_4_1" index="1" speed="13.89" length="20.80" shape="360.40,51.60 339.60,51.60"/>
    </edge>
    <edge id=":B0_6" function="internal">
        <lane id=":B0_6_0" index="0" speed="3.65" length="2.34" shape="360.40,51.60 359.20,50.80 358.80,50.00"/>
    </edge>
    <edge id=":B0_12" function="internal">
        <lane id=":B0_12_0" index="0" speed="3.65" length="2.34" shape="358.80,50.00 359.20,49.20 360.40,48.40"/>
    </edge>
    <edge id=":B0_7" function="internal">
        <lane id=":B0_7_0" index="0" speed="13.89" length="20.80" shape="339.60,45.20 360.40,45.20"/>
        <lane id=":B0_7_1" index="1" speed="13.89" length="20.80" shape="339.60,48.40 360.40,48.40"/>
    </edge>
    <edge id=":B0_9" function="internal">
        <lane id=":B0_9_0" index="0" speed="9.26" length="6.96" shape="339.60,48.40 344.85,49.15 346.27,50.00"/>
    </edge>
    <edge id=":B0_10" function="internal">
        <lane id=":B0_10_0" index="0" speed="3.65" length="2.34" shape="339.60,48.40 340.80,49.20 341.20,50.00"/>
    </edge>
    <edge id=":B0_13" function="internal">
        <lane id=":B0_13_0" index="0" speed="9.26" length="12.40" shape="346.27,50.00 348.60,51.40 350.85,55.15 351.60,60.40"/>
    </edge>
    <edge id=":B0_14" function="internal">
        <lane id=":B0_14_0" index="0" speed="3.65" length="2.34" shape="341.20,50.00 340.80,50.80 339.60,51.60"/>
    </edge>
    <edge id=":B1_0" function="internal">
        <lane id=":B1_0_0" index="0" speed="6.51" length="9.03" shape="345.20,260.40 344.85,257.95 343.80,256.20 342.05,255.15 339.60,254.80"/>
        <lane id=":B1_0_1" index="1" speed="7.33" length="11.73" shape="345.20,260.40 344.85,256.55 343.80,253.80 342.05,252.15 339.60,251.60"/>
    </edge>
    <edge id=":B1_2" function="internal">
        <lane id=":B1_2_0" index="0" speed="13.89" length="20.80" shape="345.20,260.40 345.20,239.60"/>
    </edge>
    <edge id=":B1_3" function="internal">
        <lane id=":B1_3_0" index="0" speed="10.10" length="7.47" shape="345.20,260.40 346.57,255.00 347.69,253.46"/>
    </edge>
    <edge id=":B1_4" function="internal">
        <lane id=":B1_4_0" index="0" speed="13.89" length="20.80" shape="348.40,260.40 348.40,239.60"/>
    </edge>
    <edge id=":B1_5" function="internal">
        <lane id=":B1_5_0" index="0" speed="9.02" length="5.28" shape="348.40,260.40 349.48,256.14 350.00,255.42"/>
    </edge>
    <edge id=":B1_6" function="internal">
        <lane id=":B1_6_0" index="0" speed="3.65" length="2.34" shape="348.40,260.40 349.20,259.20 350.00,258.80"/>
    </edge>
    <edge id=":B1_26" function="internal">
        <lane id=":B1_26_0" index="0" speed="10.10" length="15.74" shape="347.69,253.46 350.11,250.11 355.00,246.57 360.40,245.20"/>
    </edge>
    <edge id=":B1_27" function="internal">
        <lane id=":B1_27_0" index="0" speed="9.02" length="13.05" shape="350.00,255.42 352.28,252.28 356.14,249.48 360.40,248.40"/>
    </edge>
    <edge id=":B1_28" function="internal">
        <lane id=":B1_28_0" index="0" speed="3.65" length="2.34" shape="350.00,258.80 350.80,259.20 351.60,260.40"/>
    </edge>
    <edge id=":B1_7" function="internal">
        <lane id=":B1_7_0" index="0" speed="6.51" length="9.03" shape="360.40,254.80 357.95,255.15 356.20,256.20 355.15,257.95 354.80,260.40"/>
    </edge>
    <edge id=":B1_8" function="internal">
        <lane id=":B1_8_0" index="0" speed="13.89" length="20.80" shape="360.40,254.80 339.60,254.80"/>
    </edge>
    <edge id=":B1_9" function="internal">
        <lane id=":B1_9_0" index="0" speed="10.10" length="11.42" shape="360.40,254.80 355.00,253.43 350.27,250.00"/>
    </edge>
    <edge id=":B1_10" function="internal">
        <lane id=":B1_10_0" index="0" speed="13.89" length="20.80" shape="360.40,251.60 339.60,251.60"/>
    </edge>
    <edge id=":B1_11" function="internal">
        <lane id=":B1_11_0" index="0" speed="9.02" length="5.28" shape="360.40,251.60 356.14,250.52 355.42,250.00"/>
    </edge>
    <edge id=":B1_12" function="internal">
        <lane id=":B1_12_0" index="0" speed="3.65" length="2.34" shape="360.40,251.60 359.20,250.80 358.80,250.00"/>
    </edge>
    <edge id=":B1_29" function="internal">
        <lane id=":B1_29_0" index="0" speed="10.10" length="11.80" shape="350.27,250.00 350.11,249.89 346.57,245.00 345.20,239.60"/>
    </edge>
    <edge id=":B1_30" function="internal">
        <lane id=":B1_30_0" index="0" speed="9.02" length="13.05" shape="355.42,250.00 352.28,247.72 349.48,243.86 348.40,239.60"/>
    </edge>
    <edge id=":B1_31" function="internal">
        <lane id=":B1_31_0" index="0" speed="3.65" length="2.34" shape="358.80,250.00 359.20,249.20 360.40,248.40"/>
    </edge>
    <edge id=":B1_13" function="internal">
        <lane id=":B1_13_0" index="0" speed="6.51" length="9.03" shape="354.80,239.60 355.15,242.05 356.20,243.80 357.95,244.85 360.40,245.20"/>
    </edge>
    <edge id=":B1_14" function="internal">
        <lane id=":B1_14_0" index="0" speed="13.89" length="20.80" shape="354.80,239.60 354.80,260.40"/>
    </edge>
    <edge id=":B1_15" function="internal">
        <lane id=":B1_15_0" index="0" speed="10.10" length="7.47" shape="354.80,239.60 353.43,245.00 352.31,246.54"/>
    </edge>
    <edge id=":B1_16" function="internal">
        <lane id=":B1_16_0" index="0" speed="13.89" length="20.80" shape="351.60,239.60 351.60,260.40"/>
    </edge>
    <edge id=":B1_17" function="internal">
        <lane id=":B1_17_0" index="0" speed="9.02" length="5.28" shape="351.60,239.60 350.52,243.86 350.00,244.58"/>
    </edge>
    <edge id=":B1_18" function="internal">
        <lane id=":B1_18_0" index="0" speed="3.65" length="2.34" shape="351.60,239.60 350.80,240.80 350.00,241.20"/>
    </edge>
    <edge id=":B1_32" function="internal">
        <lane id=":B1_32_0" index="0" speed="10.10" length="15.74" shape="352.31,246.54 349.89,249.89 345.00,253.43 339.60,254.80"/>
    </edge>
    <edge id=":B1_33" function="internal">
        <lane id=":B1_33_0" index="0" speed="9.02" length="13.05" shape="350.00,244.58 347.72,247.72 343.86,250.52 339.60,251.60"/>
    </edge>
    <edge id=":B1_34" function="internal">
        <lane id=":B1_34_0" index="0" speed="3.65" length="2.34" shape="350.00,241.20 349.20,240.80 348.40,239.60"/>
    </edge>
    <edge id=":B1_19" function="internal">
        <lane id=":B1_19_0" index="0" speed="6.51" length="9.03" shape="339.60,245.20 342.05,244.85 343.80,243.80 344.85,242.05 345.20,239.60"/>
    </edge>
    <edge id=":B1_20" function="internal">
        <lane id=":B1_20_0" index="0" speed="13.89" length="20.80" shape="339.60,245.20 360.40,245.20"/>
    </edge>
    <edge id=":B1_21" function="internal">
        <lane id=":B1_21_0" index="0" speed="8.00" length="5.93" shape="339.60,248.40 343.45,247.85 345.20,246.80"/>
    </edge>
    <edge id=":B1_22" function="internal">
        <lane id=":B1_22_0" index="0" speed="13.89" length="20.80" shape="339.60,248.40 360.40,248.40"/>
    </edge>
    <edge id=":B1_23" function="internal">
        <lane id=":B1_23_0" index="0" speed="9.58" length="6.38" shape="339.60,248.40 344.70,249.43 345.73,250.00"/>
        <lane id=":B1_23_1" index="1" speed="9.02" length="5.28" shape="339.60,248.40 343.86,249.48 344.58,250.00"/>
    </edge>
    <edge id=":B1_25" function="internal">
        <lane id=":B1_25_0" index="0" speed="3.65" length="2.34" shape="339.60,248.40 340.80,249.20 341.20,250.00"/>
    </edge>
    <edge id=":B1_35" function="internal">
        <lane id=":B1_35_0" index="0" speed="8.00" length="8.26" shape="345.20,246.80 346.20,246.20 347.85,243.45 348.40,239.60"/>
    </edge>
    <edge id=":B1_36" function="internal">
        <lane id=":B1_36_0" index="0" speed="9.58" length="14.43" shape="345.73,250.00 349.62,252.15 353.33,255.99 354.80,260.40"/>
    </edge>
    <edge id=":B1_37" function="internal">
        <lane id=":B1_37_0" index="0" speed="9.02" length="13.05" shape="344.58,250.00 347.72,252.28 350.52,256.14 351.60,260.40"/>
    </edge>
    <edge id=":B1_38" function="internal">
        <lane id=":B1_38_0" index="0" speed="3.65" length="2.34" shape="341.20,250.00 340.80,250.80 339.60,251.60"/>
    </edge>
    <edge id=":B2_0" function="internal">
        <lane id=":B2_0_0" index="0" speed="13.89" length="20.80" shape="360.40,454.80 339.60,454.80"/>
        <lane id=":B2_0_1" index="1" speed="13.89" length="20.80" shape="360.40,451.60 339.60,451.60"/>
    </edge>
    <edge id=":B2_2" function="internal">
        <lane id=":B2_2_0" index="0" speed="9.26" length="6.96" shape="360.40,451.60 355.15,450.85 353.73,450.00"/>
    </edge>
    <edge id=":B2_3" function="internal">
        <lane id=":B2_3_0" index="0" speed="3.65" length="2.34" shape="360.40,451.60 359.20,450.80 358.80,450.00"/>
    </edge>
    <edge id=":B2_13" function="internal">
        <lane id=":B2_13_0" index="0" speed="9.26" length="12.40" shape="353.73,450.00 351.40,448.60 349.15,444.85 348.40,439.60"/>
    </edge>
    <edge id=":B2_14" function="internal">
        <lane id=":B2_14_0" index="0" speed="3.65" length="2.34" shape="358.80,450.00 359.20,449.20 360.40,448.40"/>
    </edge>
    <edge id=":B2_4" function="internal">
        <lane id=":B2_4_0" index="0" speed="6.51" length="9.03" shape="354.80,439.60 355.15,442.05 356.20,443.80 357.95,444.85 360.40,445.20"/>
        <lane id=":B2_4_1" index="1" speed="7.33" length="11.73" shape="354.80,439.60 355.15,443.45 356.20,446.20 357.95,447.85 360.40,448.40"/>
    </edge>
    <edge id=":B2_6" function="internal">
        <lane id=":B2_6_0" index="0" speed="9.26" length="19.35" shape="351.60,439.60 350.85,444.85 348.60,448.60 344.85,450.85 339.60,451.60"/>
    </edge>
    <edge id=":B2_7" function="internal">
        <lane id=":B2_7_0" index="0" speed="3.65" length="2.66" shape="351.60,439.60 350.80,440.80 350.00,441.20 349.71,441.06"/>
    </edge>
    <edge id=":B2_15" function="internal">
        <lane id=":B2_15_0" index="0" speed="3.65" length="2.02" shape="349.71,441.06 349.20,440.80 348.40,439.60"/>
    </edge>
    <edge id=":B2_8" function="internal">
        <lane id=":B2_8_0" index="0" speed="6.51" length="9.03" shape="339.60,445.20 342.05,444.85 343.80,443.80 344.85,442.05 345.20,439.60"/>
        <lane id=":B2_8_1" index="1" speed="7.33" length="11.73" shape="339.60,445.20 343.45,444.85 346.20,443.80 347.85,442.05 348.40,439.60"/>
    </edge>
    <edge id=":B2_10" function="internal">
        <lane id=":B2_10_0" index="0" speed="13.89" length="20.80" shape="339.60,445.20 360.40,445.20"/>
        <lane id=":B2_10_1" index="1" speed="13.89" length="20.80" shape="339.60,448.40 360.40,448.40"/>
    </edge>
    <edge id=":B2_12" function="internal">
        <lane id=":B2_12_0" index="0" speed="3.65" length="2.34" shape="339.60,448.40 340.80,449.20 341.20,450.00"/>
    </edge>
    <edge id=":B2_16" function="internal">
        <lane id=":B2_16_0" index="0" speed="3.65" length="2.34" shape="341.20,450.00 340.80,450.80 339.60,451.60"/>
    </edge>
    <edge id=":C0_0" function="internal">
        <lane id=":C0_0_0" index="0" speed="6.51" length="9.04" shape="645.20,60.41 644.85,57.95 643.80,56.20 642.05,55.15 639.60,54.80"/>
    </edge>
    <edge id=":C0_1" function="internal">
        <lane id=":C0_1_0" index="0" speed="9.26" length="19.36" shape="648.40,60.41 649.15,55.15 651.40,51.40 655.16,49.16 660.41,48.41"/>
    </edge>
    <edge id=":C0_2" function="internal">
        <lane id=":C0_2_0" index="0" speed="6.50" length="9.03" shape="660.40,54.81 657.95,55.16 656.20,56.21 655.15,57.96 654.80,60.41"/>
    </edge>
    <edge id=":C0_3" function="internal">
        <lane id=":C0_3_0" index="0" speed="13.89" length="20.80" shape="660.40,54.81 639.60,54.80"/>
        <lane id=":C0_3_1" index="1" speed="13.89" length="20.80" shape="660.41,51.61 639.60,51.60"/>
    </edge>
    <edge id=":C0_5" function="internal">
        <lane id=":C0_5_0" index="0" speed="13.89" length="20.81" shape="639.60,45.20 660.42,45.21"/>
        <lane id=":C0_5_1" index="1" speed="13.89" length="20.81" shape="639.60,48.40 660.41,48.41"/>
    </edge>
    <edge id=":C0_7" function="internal">
        <lane id=":C0_7_0" index="0" speed="9.26" length="6.96" shape="639.60,48.40 644.85,49.15 646.27,50.00"/>
    </edge>
    <edge id=":C0_8" function="internal">
        <lane id=":C0_8_0" index="0" speed="3.65" length="2.34" shape="639.60,48.40 640.80,49.20 641.20,50.00"/>
    </edge>
    <edge id=":C0_9" function="internal">
        <lane id=":C0_9_0" index="0" speed="9.26" length="12.40" shape="646.27,50.00 648.60,51.40 650.85,55.15 651.60,60.41"/>
    </edge>
    <edge id=":C0_10" function="internal">
        <lane id=":C0_10_0" index="0" speed="3.65" length="2.34" shape="641.20,50.00 640.80,50.80 639.60,51.60"/>
    </edge>
    <edge id=":C1_0" function="internal">
        <lane id=":C1_0_0" index="0" speed="6.51" length="9.03" shape="645.20,260.40 644.85,257.95 643.80,256.20 642.05,255.15 639.60,254.80"/>
    </edge>
    <edge id=":C1_1" function="internal">
        <lane id=":C1_1_0" index="0" speed="13.89" length="20.80" shape="645.20,260.40 645.20,239.60"/>
        <lane id=":C1_1_1" index="1" speed="13.89" length="20.80" shape="648.40,260.40 648.40,239.60"/>
    </edge>
    <edge id=":C1_3" function="internal">
        <lane id=":C1_3_0" index="0" speed="9.26" length="6.96" shape="648.40,260.40 649.15,255.15 650.00,253.73"/>
    </edge>
    <edge id=":C1_4" function="internal">
        <lane id=":C1_4_0" index="0" speed="3.65" length="2.34" shape="648.40,260.40 649.20,259.20 650.00,258.80"/>
    </edge>
    <edge id=":C1_19" function="internal">
        <lane id=":C1_19_0" index="0" speed="9.26" length="12.40" shape="650.00,253.73 651.40,251.40 655.15,249.15 660.40,248.39"/>
    </edge>
    <edge id=":C1_20" function="internal">
        <lane id=":C1_20_0" index="0" speed="3.65" length="2.34" shape="650.00,258.80 650.80,259.20 651.60,260.40"/>
    </edge>
    <edge id=":C1_5" function="internal">
        <lane id=":C1_5_0" index="0" speed="6.51" length="9.04" shape="660.41,254.79 657.95,255.14 656.20,256.20 655.15,257.95 654.80,260.40"/>
    </edge>
    <edge id=":C1_6" function="internal">
        <lane id=":C1_6_0" index="0" speed="13.89" length="20.81" shape="660.41,254.79 639.60,254.80"/>
        <lane id=":C1_6_1" index="1" speed="13.89" length="20.81" shape="660.41,251.59 639.60,251.60"/>
    </edge>
    <edge id=":C1_8" function="internal">
        <lane id=":C1_8_0" index="0" speed="9.26" length="6.96" shape="660.41,251.59 655.15,250.85 653.73,249.99"/>
    </edge>
    <edge id=":C1_21" function="internal">
        <lane id=":C1_21_0" index="0" speed="9.26" length="12.40" shape="653.73,249.99 651.40,248.60 649.15,244.85 648.40,239.60"/>
    </edge>
    <edge id=":C1_9" function="internal">
        <lane id=":C1_9_0" index="0" speed="6.51" length="9.03" shape="654.80,239.60 655.15,242.05 656.20,243.80 657.95,244.84 660.40,245.19"/>
    </edge>
    <edge id=":C1_10" function="internal">
        <lane id=":C1_10_0" index="0" speed="13.89" length="20.80" shape="654.80,239.60 654.80,260.40"/>
        <lane id=":C1_10_1" index="1" speed="13.89" length="20.80" shape="651.60,239.60 651.60,260.40"/>
    </edge>
    <edge id=":C1_12" function="internal">
        <lane id=":C1_12_0" index="0" speed="9.26" length="6.96" shape="651.60,239.60 650.85,244.85 650.00,246.26"/>
    </edge>
    <edge id=":C1_13" function="internal">
        <lane id=":C1_13_0" index="0" speed="3.65" length="2.34" shape="651.60,239.60 650.80,240.80 650.00,241.20"/>
    </edge>
    <edge id=":C1_22" function="internal">
        <lane id=":C1_22_0" index="0" speed="9.26" length="12.40" shape="650.00,246.26 648.60,248.60 644.85,250.85 639.60,251.60"/>
    </edge>
    <edge id=":C1_23" function="internal">
        <lane id=":C1_23_0" index="0" speed="3.65" length="2.34" shape="650.00,241.20 649.20,240.80 648.40,239.60"/>
    </edge>
    <edge id=":C1_14" function="internal">
        <lane id=":C1_14_0" index="0" speed="6.51" length="9.04" shape="639.60,245.20 642.05,244.85 643.80,243.80 644.85,242.05 645.20,239.60"/>
    </edge>
    <edge id=":C1_15" function="internal">
        <lane id=":C1_15_0" index="0" speed="13.89" length="20.80" shape="639.60,245.20 660.40,245.19"/>
        <lane id=":C1_15_1" index="1" speed="13.89" length="20.80" shape="639.60,248.40 660.40,248.39"/>
    </edge>
    <edge id=":C1_17" function="internal">
        <lane id=":C1_17_0" index="0" speed="9.26" length="6.95" shape="639.60,248.40 644.85,249.15 646.26,250.00"/>
    </edge>
    <edge id=":C1_18" function="internal">
        <lane id=":C1_18_0" index="0" speed="3.65" length="2.34" shape="639.60,248.40 640.80,249.20 641.20,250.00"/>
    </edge>
    <edge id=":C1_24" function="internal">
        <lane id=":C1_24_0" index="0" speed="9.26" length="12.40" shape="646.26,250.00 648.60,251.40 650.85,255.15 651.60,260.40"/>
    </edge>
    <edge id=":C1_25" function="internal">
        <lane id=":C1_25_0" index="0" speed="3.65" length="2.34" shape="641.20,250.00 640.80,250.80 639.60,251.60"/>
    </edge>
    <edge id=":C2_0" function="internal">
        <lane id=":C2_0_0" index="0" speed="13.89" length="20.79" shape="660.39,454.81 639.60,454.80"/>
        <lane id=":C2_0_1" index="1" speed="13.89" length="20.79" shape="660.39,451.61 639.60,451.60"/>
    </edge>
    <edge id=":C2_2" function="internal">
        <lane id=":C2_2_0" index="0" speed="9.26" length="6.95" shape="660.39,451.61 655.15,450.85 653.73,450.01"/>
    </edge>
    <edge id=":C2_11" function="internal">
        <lane id=":C2_11_0" index="0" speed="9.26" length="12.40" shape="653.73,450.01 651.40,448.60 649.15,444.85 648.40,439.60"/>
    </edge>
    <edge id=":C2_3" function="internal">
        <lane id=":C2_3_0" index="0" speed="6.51" length="9.04" shape="654.80,439.60 655.15,442.05 656.20,443.80 657.95,444.86 660.40,445.21"/>
        <lane id=":C2_3_1" index="1" speed="8.00" length="14.19" shape="651.60,439.60 652.15,443.45 653.80,446.20 656.55,447.86 660.40,448.41"/>
    </edge>
    <edge id=":C2_5" function="internal">
        <lane id=":C2_5_0" index="0" speed="9.26" length="19.35" shape="651.60,439.60 650.85,444.85 648.60,448.60 644.85,450.85 639.60,451.60"/>
    </edge>
    <edge id=":C2_6" function="internal">
        <lane id=":C2_6_0" index="0" speed="3.65" length="2.34" shape="651.60,439.60 650.80,440.80 650.00,441.20"/>
    </edge>
    <edge id=":C2_12" function="internal">
        <lane id=":C2_12_0" index="0" speed="3.65" length="2.34" shape="650.00,441.20 649.20,440.80 648.40,439.60"/>
    </edge>
    <edge id=":C2_7" function="internal">
        <lane id=":C2_7_0" index="0" speed="6.51" length="9.03" shape="639.60,445.20 642.05,444.85 643.80,443.80 644.85,442.05 645.20,439.60"/>
    </edge>
    <edge id=":C2_8" function="internal">
        <lane id=":C2_8_0" index="0" speed="13.89" length="20.80" shape="639.60,445.20 660.40,445.21"/>
        <lane id=":C2_8_1" index="1" speed="13.89" length="20.80" shape="639.60,448.40 660.40,448.41"/>
    </edge>
    <edge id=":C2_10" function="internal">
        <lane id=":C2_10_0" index="0" speed="3.65" length="2.34" shape="639.60,448.40 640.80,449.20 641.20,450.00"/>
    </edge>
    <edge id=":C2_13" function="internal">
        <lane id=":C2_13_0" index="0" speed="3.65" length="2.34" shape="641.20,450.00 640.80,450.80 639.60,451.60"/>
    </edge>
    <edge id=":D0_0" function="internal">
        <lane id=":D0_0_0" index="0" speed="6.52" length="9.05" shape="952.30,60.83 951.95,58.37 950.90,56.62 949.15,55.56 946.70,55.21"/>
        <lane id=":D0_0_1" index="1" speed="8.01" length="14.20" shape="955.50,60.83 954.95,56.97 953.30,54.22 950.55,52.56 946.71,52.01"/>
    </edge>
    <edge id=":D0_2" function="internal">
        <lane id=":D0_2_0" index="0" speed="9.26" length="19.36" shape="955.50,60.83 956.25,55.57 958.49,51.82 962.24,49.57 967.49,48.81"/>
    </edge>
    <edge id=":D0_3" function="internal">
        <lane id=":D0_3_0" index="0" speed="6.51" length="9.03" shape="967.50,55.21 965.05,55.56 963.30,56.62 962.25,58.37 961.90,60.82"/>
    </edge>
    <edge id=":D0_4" function="internal">
        <lane id=":D0_4_0" index="0" speed="13.89" length="20.79" shape="967.50,55.21 946.70,55.21"/>
        <lane id=":D0_4_1" index="1" speed="13.89" length="20.79" shape="967.50,52.01 946.71,52.01"/>
    </edge>
    <edge id=":D0_6" function="internal">
        <lane id=":D0_6_0" index="0" speed="13.89" length="20.78" shape="946.71,45.61 967.49,45.61"/>
        <lane id=":D0_6_1" index="1" speed="13.89" length="20.78" shape="946.71,48.81 967.49,48.81"/>
    </edge>
    <edge id=":D0_8" function="internal">
        <lane id=":D0_8_0" index="0" speed="9.27" length="6.93" shape="946.71,48.81 951.95,49.56 953.35,50.41"/>
    </edge>
    <edge id=":D0_9" function="internal">
        <lane id=":D0_9_0" index="0" speed="9.27" length="12.42" shape="953.35,50.41 955.70,51.82 957.95,55.57 958.70,60.82"/>
    </edge>
    <edge id=":D1_0" function="internal">