<routes >
    <trip depart="0.00" from="B0B1" id="0" to="B1C1" type="human_car"/>
    <trip depart="1.00" from="D1C1" id="1" to="C1B1" type="human_car"/>
    <trip depart="2.00" from="A0A1" id="2" to="C2C1" type="human_car"/>
    <trip depart="3.00" from="C0D0" id="3" to="B0A0" type="human_car"/>
    <trip depart="4.00" from="B0A0" id="4" to="C1C0" type="human_car"/>
    <trip depart="5.00" from="D2C2" id="5" to="C0D0" type="human_car"/>
    <trip depart="6.00" from="B0A0" id="6" to="D0C0" type="human_car"/>
    <trip depart="7.00" from="right0D0" id="7" to="A2B2" type="human_car"/>
    <trip depart="8.00" from="right0D0" id="8" to="C1B1" type="human_car"/>
    <trip depart="9.00" from="B1B0" id="9" to="A1A2" type="human_car"/>
    <trip depart="10.00" from="B1A1" id="10" to="A1A0" type="human_car"/>
    <trip depart="11.00" from="B1B2" id="11" to="B2A2" type="human_car"/>
    <trip depart="12.00" from="D1C1" id="12" to="C1B1" type="human_car"/>
    <trip depart="13.00" from="D2D1" id="13" to="B2C2" type="human_car"/>
    <trip depart="14.00" from="right0D0" id="14" to="A2left2" type="human_car"/>
    <trip depart="15.00" from="B1A1" id="15" to="D0C0" type="human_car"/>
    <trip depart="16.00" from="B2A2" id="16" to="D2D1" type="human_car"/>
    <trip depart="17.00" from="C2B2" id="17" to="B1C1" type="human_car"/>
    <trip depart="18.00" from="C1C0" id="18" to="D2C2" type="human_car"/>
    <trip depart="19.00" from="B2C2" id="19" to="B1C1" type="human_car"/>
    <trip depart="20.00" from="A2B2" id="20" to="B2B1" type="human_car"/>
    <trip depart="21.00" from="D1C1" id="21" to="C1B1" type="human_car"/>
    <trip depart="22.00" from="C1C0" id="22" to="D1C1" type="human_car"/>
    <trip depart="23.00" from="C1C0" id="23" to="C2B2" type="human_car"/>
    <trip depart="24.00" from="C0C1" id="24" to="B0A0" type="human_car"/>
    <trip depart="25.00" from="B1C1" id="25" to="A2A1" type="human_car"/>
    <trip depart="26.00" from="C1B1" id="26" to="B2C2" type="human_car"/>
    <trip depart="27.00" from="B1C1" id="27" to="C1B1" type="human_car"/>
    <trip depart="28.00" from="D1D2" id="28" to="C1D1" type="human_car"/>
    <trip depart="29.00" from="C2C1" id="29" to="A1B1" type="human_bus"/>
    <trip depart="30.00" from="D1C1" id="30" to="C1B1" type="human_car"/>
    <trip depart="31.00" from="A1B1" id="31" to="B1B2" type="human_car"/>
    <trip depart="32.00" from="A1B1" id="32" to="A2A1" type="human_car"/>
    <trip depart="33.00" from="D1D0" id="33" to="A2left2" type="human_car"/>
    <trip depart="34.00" from="B1C1" id="34" to="A1B1" type="human_bus"/>
    <trip depart="35.00" from="B1C1" id="35" to="C1C0" type="human_car"/>
    <trip depart="36.00" from="C0C1" id="36" to="D0right0" type="human_car"/>
    <trip depart="37.00" from="D1C1" id="37" to="C1B1" type="human_car"/>
    <trip depart="38.00" from="D0C0" id="38" to="C2B2" type="human_car"/>
    <trip depart="39.00" from="C0B0" id="39" to="A1B1" type="human_car"/>
    <trip depart="40.00" from="A1A0" id="40" to="B1B2" type="human_car"/>
    <trip depart="41.00" from="D0D1" id="41" to="A1B1" type="human_car"/>
    <trip depart="42.00" from="right0D0" id="42" to="A2left2" type="human_car"/>
    <trip depart="43.00" from="C1D1" id="43" to="C1C2" type="human_car"/>
    <trip depart="44.00" from="C1C2" id="44" to="D1D0" type="human_car"/>
    <trip depart="45.00" from="B2A2" id="45" to="C1B1" type="human_bus"/>
    <trip depart="46.00" from="right0D0" id="46" to="D2C2" type="human_car"/>
    <trip depart="47.00" from="D1C1" id="47" to="A2A1" type="human_car"/>
    <trip depart="48.00" from="D1D2" id="48" to="A1B1" type="human_car"/>
    <trip depart="49.00" from="D2C2" id="49" to="D1D2" type="human_car"/>
    <trip depart="50.00" from="D1C1" id="50" to="C1B1" type="human_car"/>
    <trip depart="51.00" from="C1D1" id="51" to="B2A2" type="human_car"/>
    <trip depart="52.00" from="D1C1" id="52" to="B0B1" type="human_car"/>
    <trip depart="53.00" from="D1C1" id="53" to="C1B1" type="human_car"/>
    <trip depart="54.00" from="A1B1" id="54" to="B2A2" type="human_car"/>
    <trip depart="55.00" from="B1C1" id="55" to="D0D1" type="human_car"/>
    <trip depart="56.00" from="D2C2" id="56" to="B0B1" type="human_car"/>
    <trip depart="57.00" from="C2C1" id="57" to="C1D1" type="human_car"/>
    <trip depart="58.00" from="D1C1" id="58" to="C1B1" type="human_car"/>
    <trip depart="59.00" from="left2A2" id="59" to="B1C1" type="human_car"/>
    <trip depart="60.00" from="C0B0" id="60" to="A1B1" type="human_car"/>
    <trip depart="61.00" from="C0C1" id="61" to="B0B1" type="human_car"/>
    <trip depart="62.00" from="D2D1" id="62" to="C2D2" type="human_car"/>
    <trip depart="63.00" from="A1A0" id="63" to="A2A1" type="human_car"/>
    <trip depart="64.00" from=":B1_16" id="64" to="B2C2" type="human_car"/>
    <trip depart="65.00" from="C1D1" id="65" to="C0C1" type="human_car"/>
    <trip depart="66.00" from="C0D0" id="66" to="C2D2" type="human_car"/>
    <trip depart="67.00" from="B1C1" id="67" to="C2D2" type="human_car"/>
    <trip depart="68.00" from="B1C1" id="68" to="C0C1" type="human_car"/>
    <trip depart="69.00" from="A2A1" id="69" to="D0right0" type="human_car"/>
    <trip depart="70.00" from="D1C1" id="70" to="C1B1" type="human_car"/>
    <trip depart="71.00" from="D1C1" id="71" to="C1B1" type="human_car"/>
    <trip depart="72.00" from="B1C1" id="72" to="C2C1" type="human_car"/>
    <trip depart="73.00" from="A2B2" id="73" to="C0D0" type="human_car"/>
    <trip depart="74.00" from="C2C1" id="74" to="B2B1" type="human_car"/>
    <trip depart="75.00" from="right0D0" id="75" to="A1B1" type="human_car"/>
    <trip depart="76.00" from="right0D0" id="76" to="A2left2" type="human_car"/>
    <trip depart="77.00" from="B0B1" id="77" to="B2B1" type="human_car"/>
    <trip depart="78.00" from="B1C1" id="78" to="B1C1" type="human_car"/>
    <trip depart="79.00" from=":B1_16" id="79" to="C1C2" type="human_car"/>
    <trip depart="80.00" from="C1C0" id="80" to="C1C2" type="human_bus"/>
    <trip depart="81.00" from="C1D1" id="81" to="B1C1" type="human_car"/>
    <trip depart="82.00" from="B0B1" id="82" to="A1A0" type="human_car"/>
    <trip depart="83.00" from="A0A1" id="83" to="B1A1" type="human_car"/>
    <trip depart="84.00" from=":B1_16" id="84" to="C1B1" type="human_car"/>
    <trip depart="85.00" from="C1C2" id="85" to="C0C1" type="human_car"/>
    <trip depart="86.00" from="B1C1" id="86" to="D1C1" type="human_car"/>
    <trip depart="87.00" from="B1C1" id="87" to="A2B2" type="human_car"/>
    <trip depart="88.00" from="C1C2" id="88" to="C1C2" type="human_car"/>
    <trip depart="89.00" from="B1C1" id="89" to="C2C1" type="human_car"/>
    <trip depart="90.00" from="D1D2" id="90" to="B1C1" type="human_car"/>
    <trip depart="91.00" from="right0D0" id="91" to="C2C1" type="human_car"/>
    <trip depart="92.00" from="D1D0" id="92" to="C1C0" type="human_bus"/>
    <trip depart="93.00" from="C0B0" id="93" to="A1A2" type="human_car"/>
    <trip depart="94.00" from="D1D2" id="94" to="B0C0" type="human_car"/>
    <trip depart="95.00" from="B0C0" id="95" to="C1C0" type="human_car"/>
    <trip depart="96.00" from="right0D0" id="96" to="A2left2" type="human_car"/>
    <trip depart="97.00" from="C0B0" id="97" to="A1A0" type="human_car"/>
    <trip depart="98.00" from="D2C2" id="98" to="B0C0" type="human_car"/>
    <trip depart="99.00" from="A0A1" id="99" to="B1B2" type="human_car"/>
    <trip depart="100.00" from="D1C1" id="100" to="C1B1" type="human_car"/>
    <trip depart="101.00" from="D1C1" id="101" to="C1B1" type="human_car"/>
    <trip depart="102.00" from="D2C2" id="102" to="B0C0" type="human_car"/>
    <trip depart="103.00" from="D1C1" id="103" to="C1B1" type="human_car"/>
    <trip depart="104.00" from="C1C2" id="104" to="C1C2" type="human_car"/>
    <trip depart="105.00" from="C1D1" id="105" to="B1C1" type="human_car"/>
    <trip depart="106.00" from="D1C1" id="106" to="C1B1" type="human_car"/>
    <trip depart="107.00" from="C2C1" id="107" to="D2C2" type="human_bus"/>
    <trip depart="108.00" from="D1C1" id="108" to="C1B1" type="human_car"/>
    <trip depart="109.00" from="C2B2" id="109" to="D1C1" type="human_car"/>
    <trip depart="110.00" from="A1A2" id="110" to="A2B2" type="human_car"/>
    <trip depart="111.00" from="D1C1" id="111" to="C1B1" type="human_car"/>
    <trip depart="112.00" from="C2C1" id="112" to="C0D0" type="human_car"/>
    <trip depart="113.00" from="A0A1" id="113" to="B2B1" type="human_car"/>
    <trip depart="114.00" from="A1A0" id="114" to="A1A2" type="human_car"/>
    <trip depart="115.00" from="C1C0" id="115" to="D1D2" type="human_car"/>
    <trip depart="116.00" from="B1C1" id="116" to="C2D2" type="human_car"/>
    <trip depart="117.00" from="C2D2" id="117" to="D1D0" type="human_car"/>
    <trip depart="118.00" from="C2D2" id="118" to="D1D2" type="human_car"/>
    <trip depart="119.00" from="D1D0" id="119" to="C0C1" type="human_car"/>
    <trip depart="120.00" from="A1A2" id="120" to="D1D0" type="human_car"/>
    <trip depart="121.00" from="B2A2" id="121" to="D1D0" type="human_car"/>
    <trip depart="122.00" from="C1C0" id="122" to="A1A0" type="human_car"/>
    <trip depart="123.00" from="B1B2" id="123" to="B0C0" type="human_car"/>
    <trip depart="124.00" from="D0D1" id="124" to="B1B2" type="human_car"/>
    <trip depart="125.00" from="B1C1" id="125" to="B2C2" type="human_car"/>
    <trip depart="126.00" from="D1C1" id="126" to="C1B1" type="human_car"/>
    <trip depart="127.00" from="C0B0" id="127" to="B2C2" type="human_car"/>
    <trip depart="128.00" from="A0A1" id="128" to="D0D1" type="human_car"/>
    <trip depart="129.00" from="D0D1" id="129" to="C0D0" type="human_car"/>
    <trip depart="130.00" from="C1C0" id="130" to="C0C1" type="human_car"/>
    <trip depart="131.00" from="B2A2" id="131" to="B0B1" type="human_bus"/>
    <trip depart="132.00" from="A2A1" id="132" to="B2A2" type="human_car"/>
    <trip depart="133.00" from="B1B2" id="133" to="B1A1" type="human_car"/>
    <trip depart="134.00" from="D1D0" id="134" to="C0C1" type="human_car"/>
    <trip depart="135.00" from="D1D2" id="135" to="B1B0" type="human_car"/>
    <trip depart="136.00" from="B2C2" id="136" to="A0A1" type="human_car"/>
    <trip depart="137.00" from="left2A2" id="137" to="A1B1" type="human_car"/>
    <trip depart="138.00" from="A2B2" id="138" to="B1B0" type="human_car"/>
    <trip depart="139.00" from="C0B0" id="139" to="A0B0" type="human_car"/>
    <trip depart="140.00" from="C0C1" id="140" to="C0B0" type="human_car"/>
    <trip depart="141.00" from="B2B1" id="141" to="B0C0" type="human_car"/>
    <trip depart="142.00" from="A2A1" id="142" to="A1A2" type="human_car"/>
    <trip depart="143.00" from="A2B2" id="143" to="C0B0" type="human_car"/>
    <trip depart="144.00" from="A1B1" id="144" to="C2C1" type="human_car"/>
    <trip depart="145.00" from="D0D1" id="145" to="C2C1" type="human_car"/>
    <trip depart="146.00" from="C0B0" id="146" to="A2A1" type="human_car"/>
    <trip depart="147.00" from="D1C1" id="147" to="C1C0" type="human_car"/>
    <trip depart="148.00" from="C1C0" id="148" to="C2D2" type="human_car"/>
    <trip depart="149.00" from="D0C0" id="149" to="D2C2" type="human_car"/>
</routes>
