<routes>
     <trip depart="0.00" from="D1C1" id="rl_26" to="B2C2" type="rl_car"/>
     <trip depart="1.00" from="B1C1" id="rl_54" to="D2C2" type="rl_car"/>
     <trip depart="2.00" from="D1D2" id="rl_12" to="D2C2" type="rl_car"/>
     <trip depart="3.00" from="right0D0" id="rl_68" to="A2left2" type="rl_car"/>
     <trip depart="4.00" from="D0D1" id="rl_8" to="A1B1" type="rl_car"/>
     <trip depart="5.00" from="B1B0" id="rl_48" to="A1A2" type="rl_car"/>
     <trip depart="6.00" from="B0B1" id="6" to="A1A2" type="human_car"/>
     <trip depart="7.00" from="C2C1" id="rl_65" to="D2C2" type="rl_car"/>
     <trip depart="8.00" from="B2B1" id="8" to="C1C2" type="human_car"/>
     <trip depart="9.00" from="B1B0" id="rl_58" to="D1D0" type="rl_car"/>
     <trip depart="10.00" from="A0A1" id="rl_38" to="A1A2" type="rl_car"/>
     <trip depart="11.00" from="C1C0" id="rl_18" to="B1B2" type="rl_car"/>
     <trip depart="12.00" from="B0B1" id="rl_50" to="C1D1" type="rl_car"/>
     <trip depart="13.00" from="D2D1" id="rl_36" to="A1B1" type="rl_car"/>
     <trip depart="14.00" from="B1A1" id="14" to="A0B0" type="human_car"/>
     <trip depart="15.00" from="B1B2" id="15" to="D0right0" type="human_car"/>
     <trip depart="16.00" from="B0B1" id="16" to="D2D1" type="human_car"/>
     <trip depart="17.00" from="A2B2" id="rl_30" to="A0B0" type="rl_car"/>
     <trip depart="18.00" from="B2A2" id="rl_14" to="C1D1" type="rl_car"/>
     <trip depart="19.00" from="C2B2" id="rl_2" to="B1C1" type="rl_car"/>
     <trip depart="20.00" from="A0B0" id="20" to="B2A2" type="human_car"/>
     <trip depart="21.00" from="B1A1" id="rl_6" to="C1C0" type="rl_car"/>
     <trip depart="22.00" from="A1B1" id="rl_11" to="A2B2" type="rl_car"/>
     <trip depart="23.00" from="B0C0" id="23" to="C1B1" type="human_car"/>
     <trip depart="24.00" from="C2D2" id="24" to="A0B0" type="human_car"/>
     <trip depart="25.00" from="D2C2" id="25" to="D0D1" type="human_car"/>
     <trip depart="26.00" from="D2C2" id="26" to="C2B2" type="human_car"/>
     <trip depart="27.00" from="left2A2" id="rl_60" to="A1A2" type="rl_car"/>
     <trip depart="28.00" from="D2D1" id="28" to="B2A2" type="human_car"/>
     <trip depart="29.00" from="B2C2" id="rl_37" to="D1D0" type="rl_car"/>
     <trip depart="30.00" from="B0A0" id="rl_4" to="A2A1" type="rl_car"/>
     <trip depart="31.00" from="A2A1" id="rl_67" to="A0A1" type="rl_car"/>
     <trip depart="32.00" from="left2A2" id="rl_53" to="A2left2" type="rl_car"/>
     <trip depart="33.00" from="C1C2" id="rl_47" to="D1D0" type="rl_car"/>
     <trip depart="34.00" from="left2A2" id="rl_62" to="B1C1" type="rl_car"/>
     <trip depart="35.00" from="A2A1" id="rl_71" to="B2A2" type="rl_car"/>
     <trip depart="36.00" from="C0B0" id="rl_32" to="D1C1" type="rl_car"/>
     <trip depart="37.00" from="C0C1" id="rl_42" to="C1C2" type="rl_car"/>
     <trip depart="38.00" from="B1A1" id="38" to="C2C1" type="human_car"/>
     <trip depart="39.00" from="D1C1" id="39" to="D2D1" type="human_car"/>
     <trip depart="40.00" from="B2B1" id="rl_23" to="C1B1" type="rl_car"/>
     <trip depart="41.00" from="B0A0" id="rl_72" to="A1B1" type="rl_car"/>
     <trip depart="42.00" from="C0C1" id="42" to="D2C2" type="human_car"/>
     <trip depart="43.00" from="C1B1" id="rl_20" to="D0C0" type="rl_car"/>
     <trip depart="44.00" from="A2B2" id="44" to="B0B1" type="human_car"/>
     <trip depart="45.00" from="C1C2" id="rl_28" to="C1C0" type="rl_car"/>
     <trip depart="46.00" from="B1A1" id="rl_29" to="C2B2" type="rl_car"/>
     <trip depart="47.00" from="C1C0" id="47" to="A1A0" type="human_car"/>
     <trip depart="48.00" from="A0B0" id="rl_73" to="B2C2" type="rl_car"/>
     <trip depart="49.00" from="B1A1" id="49" to="C2C1" type="human_car"/>
     <trip depart="50.00" from="D0D1" id="50" to="C2C1" type="human_car"/>
     <trip depart="51.00" from="B1A1" id="51" to="B2C2" type="human_car"/>
     <trip depart="52.00" from="C2C1" id="rl_31" to="C1D1" type="rl_car"/>
     <trip depart="53.00" from="D1D2" id="53" to="C1D1" type="human_car"/>
     <trip depart="54.00" from="B2A2" id="54" to="D2C2" type="human_car"/>
     <trip depart="55.00" from="A2B2" id="rl_41" to="B1B0" type="rl_car"/>
     <trip depart="56.00" from="A0A1" id="rl_13" to="C1C2" type="rl_car"/>
     <trip depart="57.00" from="D1D0" id="rl_25" to="A2left2" type="rl_car"/>
     <trip depart="58.00" from="A0A1" id="58" to="D1D2" type="human_car"/>
     <trip depart="59.00" from="D1D2" id="59" to="B2A2" type="human_car"/>
     <trip depart="60.00" from="D0D1" id="60" to="C2B2" type="human_car"/>
     <trip depart="61.00" from="A1B1" id="rl_46" to="B2A2" type="rl_car"/>
     <trip depart="62.00" from="A1B1" id="rl_17" to="C1C2" type="rl_car"/>
     <trip depart="63.00" from="A2B2" id="63" to="B0B1" type="human_car"/>
     <trip depart="64.00" from="C1C2" id="64" to="B2C2" type="human_car"/>
     <trip depart="65.00" from="A0A1" id="65" to="D2C2" type="human_car"/>
     <trip depart="66.00" from="C2D2" id="66" to="A2left2" type="human_car"/>
     <trip depart="67.00" from="C2C1" id="rl_19" to="C1D1" type="rl_car"/>
     <trip depart="68.00" from="B1B2" id="68" to="B0C0" type="human_car"/>
     <trip depart="69.00" from="D2C2" id="69" to="D2C2" type="human_car"/>
     <trip depart="70.00" from="C1B1" id="70" to="C2D2" type="human_car"/>
     <trip depart="71.00" from="A0A1" id="71" to="A1A0" type="human_car"/>
     <trip depart="72.00" from="C1C2" id="rl_61" to="B0A0" type="rl_car"/>
     <trip depart="73.00" from="D2D1" id="73" to="B0B1" type="human_car"/>
     <trip depart="74.00" from="A0A1" id="74" to="A1B1" type="human_car"/>
     <trip depart="75.00" from="B1B0" id="rl_52" to="D1C1" type="rl_car"/>
     <trip depart="76.00" from="B1B2" id="rl_39" to="D1C1" type="rl_car"/>
     <trip depart="77.00" from="A1B1" id="77" to="B0A0" type="human_car"/>
     <trip depart="78.00" from="D2C2" id="78" to="A2A1" type="human_car"/>
     <trip depart="79.00" from="right0D0" id="rl_24" to="C0C1" type="rl_car"/>
     <trip depart="80.00" from="C2D2" id="80" to="B1C1" type="human_car"/>
     <trip depart="81.00" from="C0B0" id="rl_9" to="A2A1" type="rl_car"/>
     <trip depart="82.00" from="B2A2" id="82" to="A1A0" type="human_car"/>
     <trip depart="83.00" from="C1D1" id="83" to="B0A0" type="human_car"/>
     <trip depart="84.00" from="A1A0" id="rl_10" to="D0D1" type="rl_car"/>
     <trip depart="85.00" from="B1B2" id="85" to="B1C1" type="human_car"/>
     <trip depart="86.00" from="A2A1" id="rl_22" to="C1D1" type="rl_car"/>
     <trip depart="87.00" from="B0A0" id="rl_63" to="C1C2" type="rl_car"/>
     <trip depart="88.00" from="C0B0" id="rl_66" to="D1D2" type="rl_car"/>
     <trip depart="89.00" from="A2A1" id="89" to="D2C2" type="human_car"/>
     <trip depart="90.00" from="B1C1" id="rl_43" to="C0D0" type="rl_car"/>
     <trip depart="91.00" from="C1B1" id="91" to="D0C0" type="human_car"/>
     <trip depart="92.00" from="A1B1" id="92" to="A0B0" type="human_car"/>
     <trip depart="93.00" from="D2D1" id="rl_21" to="C2C1" type="rl_car"/>
     <trip depart="94.00" from="C2B2" id="94" to="B1B2" type="human_car"/>
     <trip depart="95.00" from="D0C0" id="rl_16" to="B1B0" type="rl_car"/>
     <trip depart="96.00" from="D0D1" id="96" to="A1B1" type="human_car"/>
     <trip depart="97.00" from="C2B2" id="rl_57" to="D0C0" type="rl_car"/>
     <trip depart="98.00" from="B1B0" id="rl_74" to="B2C2" type="rl_car"/>
     <trip depart="99.00" from="C2C1" id="rl_55" to="B2C2" type="rl_car"/>
     <trip depart="100.00" from="C1C2" id="rl_70" to="A2left2" type="rl_car"/>
     <trip depart="101.00" from="C1D1" id="101" to="B1B2" type="human_car"/>
     <trip depart="102.00" from="C2D2" id="102" to="D1D0" type="human_car"/>
     <trip depart="103.00" from="B2B1" id="rl_3" to="D0right0" type="rl_car"/>
     <trip depart="104.00" from="B0B1" id="104" to="C2D2" type="human_car"/>
     <trip depart="105.00" from="A1A0" id="rl_64" to="B2B1" type="rl_car"/>
     <trip depart="106.00" from="D2C2" id="rl_27" to="D0D1" type="rl_car"/>
     <trip depart="107.00" from="B2A2" id="107" to="C1C2" type="human_car"/>
     <trip depart="108.00" from="C0C1" id="108" to="C1D1" type="human_car"/>
     <trip depart="109.00" from="A2B2" id="109" to="A0A1" type="human_car"/>
     <trip depart="110.00" from="A0B0" id="110" to="B1B2" type="human_car"/>
     <trip depart="111.00" from="B1A1" id="rl_1" to="B2B1" type="rl_car"/>
     <trip depart="112.00" from="C2C1" id="rl_33" to="D2C2" type="rl_car"/>
     <trip depart="113.00" from="A0A1" id="rl_34" to="D1D0" type="rl_car"/>
     <trip depart="114.00" from="C0D0" id="114" to="D1D2" type="human_car"/>
     <trip depart="115.00" from="left2A2" id="rl_5" to="B0C0" type="rl_car"/>
     <trip depart="116.00" from="B2A2" id="116" to="C0C1" type="human_car"/>
     <trip depart="117.00" from="B1B2" id="117" to="C1D1" type="human_car"/>
     <trip depart="118.00" from="B1B2" id="118" to="C2B2" type="human_car"/>
     <trip depart="119.00" from="C2B2" id="rl_44" to="C0B0" type="rl_car"/>
     <trip depart="120.00" from="C2D2" id="rl_15" to="D0D1" type="rl_car"/>
     <trip depart="121.00" from="C2C1" id="rl_7" to="C2C1" type="rl_car"/>
     <trip depart="122.00" from="B2C2" id="122" to="A0A1" type="human_car"/>
     <trip depart="123.00" from="B2B1" id="123" to="D2C2" type="human_car"/>
     <trip depart="124.00" from="D2C2" id="124" to="A1A2" type="human_car"/>
     <trip depart="125.00" from="B0B1" id="125" to="D2C2" type="human_car"/>
     <trip depart="126.00" from="D1D2" id="126" to="A1A2" type="human_car"/>
     <trip depart="127.00" from="B1B0" id="127" to="A2A1" type="human_car"/>
     <trip depart="128.00" from="A0B0" id="128" to="B1B0" type="human_car"/>
     <trip depart="129.00" from="left2A2" id="129" to="C0B0" type="human_car"/>
     <trip depart="130.00" from="D2C2" id="130" to="B0A0" type="human_car"/>
     <trip depart="131.00" from="B2A2" id="rl_0" to="A0A1" type="rl_car"/>
     <trip depart="132.00" from="A1A0" id="rl_51" to="B2B1" type="rl_car"/>
     <trip depart="133.00" from="A2A1" id="rl_49" to="B0A0" type="rl_car"/>
     <trip depart="134.00" from="right0D0" id="rl_69" to="C2B2" type="rl_car"/>
     <trip depart="135.00" from="left2A2" id="rl_35" to="D0right0" type="rl_car"/>
     <trip depart="136.00" from="A1A2" id="rl_59" to="A1B1" type="rl_car"/>
     <trip depart="137.00" from="left2A2" id="137" to="A1A0" type="human_car"/>
     <trip depart="138.00" from="C1B1" id="138" to="B1A1" type="human_car"/>
     <trip depart="139.00" from="B2A2" id="139" to="C1D1" type="human_car"/>
     <trip depart="140.00" from="B1C1" id="140" to="C2B2" type="human_car"/>
     <trip depart="141.00" from="C1C2" id="rl_56" to="B2B1" type="rl_car"/>
     <trip depart="142.00" from="D0D1" id="rl_40" to="B0A0" type="rl_car"/>
     <trip depart="143.00" from="D0C0" id="143" to="B1B2" type="human_car"/>
     <trip depart="144.00" from="C1D1" id="rl_45" to="B2B1" type="rl_car"/>
     <trip depart="145.00" from="B0B1" id="145" to="A1A2" type="human_car"/>
     <trip depart="146.00" from="D2C2" id="146" to="C1C0" type="human_car"/>
     <trip depart="147.00" from="B2C2" id="147" to="A2A1" type="human_car"/>
     <trip depart="148.00" from="C0B0" id="148" to="B1A1" type="human_car"/>
     <trip depart="149.00" from="A0B0" id="149" to="C0D0" type="human_car"/>
</routes>
